# generated using pymatgen
data_LiAlS2
_symmetry_space_group_name_H-M   'P 1'
_cell_length_a   6.54848711
_cell_length_b   7.92298339
_cell_length_c   6.24548495
_cell_angle_alpha   90.00000284
_cell_angle_beta   89.99999546
_cell_angle_gamma   90.00000004
_symmetry_Int_Tables_number   1
_chemical_formula_structural   LiAlS2
_chemical_formula_sum   'Li4 Al4 S8'
_cell_volume   324.03795961
_cell_formula_units_Z   4
loop_
 _symmetry_equiv_pos_site_id
 _symmetry_equiv_pos_as_xyz
  1  'x, y, z'
loop_
 _atom_site_type_symbol
 _atom_site_label
 _atom_site_symmetry_multiplicity
 _atom_site_fract_x
 _atom_site_fract_y
 _atom_site_fract_z
 _atom_site_occupancy
  S  S0  1  -0.06765364  0.87390749  -0.84066198  1
  S  S1  1  -0.59994502  0.12647048  -0.86574486  1
  S  S2  1  -0.09994502  0.34848552  -0.86574484  1
  S  S3  1  -0.94073004  0.10104858  -0.34066197  1
  S  S4  1  -0.56765367  0.60104851  -0.84066200  1
  S  S5  1  -0.40843849  0.84848552  -0.36574488  1
  S  S6  1  -0.90843849  0.62647047  -0.36574491  1
  S  S7  1  -0.44073006  0.37390741  -0.34066195  1
  Al  Al8  1  -0.93087186  0.11352144  -0.97637792  1
  Al  Al9  1  -0.07751164  0.86143456  -0.47637791  1
  Al  Al10  1  -0.43087185  0.36143457  -0.97637789  1
  Al  Al11  1  -0.57751164  0.61352144  -0.47637794  1
  Li  Li12  1  -0.41879438  0.86506593  -0.97229710  1
  Li  Li13  1  -0.91879441  0.60988999  -0.97229714  1
  Li  Li14  1  -0.58958974  0.10988996  -0.47229710  1
  Li  Li15  1  -0.08958978  0.36506595  -0.47229706  1
