# generated using pymatgen
data_LiGaS2
_symmetry_space_group_name_H-M   'P 1'
_cell_length_a   6.59202532
_cell_length_b   7.93417734
_cell_length_c   6.29889746
_cell_angle_alpha   89.99992271
_cell_angle_beta   90.00001989
_cell_angle_gamma   89.99999428
_symmetry_Int_Tables_number   1
_chemical_formula_structural   LiGaS2
_chemical_formula_sum   'Li4 Ga4 S8'
_cell_volume   329.44681144
_cell_formula_units_Z   4
loop_
 _symmetry_equiv_pos_site_id
 _symmetry_equiv_pos_as_xyz
  1  'x, y, z'
loop_
 _atom_site_type_symbol
 _atom_site_label
 _atom_site_symmetry_multiplicity
 _atom_site_fract_x
 _atom_site_fract_y
 _atom_site_fract_z
 _atom_site_occupancy
  S  S0  1  -0.07058346  0.12933818  -0.15864629  1
  S  S1  1  -0.59820468  0.87690281  -0.13949202  1
  S  S2  1  -0.09820655  0.64826026  -0.13949174  1
  S  S3  1  -0.93791337  0.89582655  -0.65864410  1
  S  S4  1  -0.57058295  0.39582667  -0.15864395  1
  S  S5  1  -0.41028940  0.14826022  -0.63949155  1
  S  S6  1  -0.91029122  0.37690295  -0.63949180  1
  S  S7  1  -0.43791291  0.62933831  -0.65864632  1
  Ga  Ga8  1  -0.93077828  0.88661999  -0.02523514  1
  Ga  Ga9  1  -0.07771713  0.13854423  -0.52523469  1
  Ga  Ga10  1  -0.43077872  0.63854412  -0.02523481  1
  Ga  Ga11  1  -0.57771761  0.38661999  -0.52523506  1
  Li  Li12  1  -0.41796274  0.13512377  -0.02832385  1
  Li  Li13  1  -0.91796318  0.39004055  -0.02832511  1
  Li  Li14  1  -0.59053389  0.89004060  -0.52832523  1
  Li  Li15  1  -0.09053430  0.63512385  -0.52832395  1
