# generated using pymatgen
data_Li3AsO4
_symmetry_space_group_name_H-M   'P 1'
_cell_length_a   5.04619637
_cell_length_b   5.46644630
_cell_length_c   6.36154887
_cell_angle_alpha   90.00000064
_cell_angle_beta   90.00000148
_cell_angle_gamma   90.00001378
_symmetry_Int_Tables_number   1
_chemical_formula_structural   Li3AsO4
_chemical_formula_sum   'Li6 As2 O8'
_cell_volume   175.48180818
_cell_formula_units_Z   2
loop_
 _symmetry_equiv_pos_site_id
 _symmetry_equiv_pos_as_xyz
  1  'x, y, z'
loop_
 _atom_site_type_symbol
 _atom_site_label
 _atom_site_symmetry_multiplicity
 _atom_site_fract_x
 _atom_site_fract_y
 _atom_site_fract_z
 _atom_site_occupancy
  As  As0  1  0.12427447  0.17111836  0.99583341  1
  As  As1  1  0.62427457  0.82888174  0.49583341  1
  O  O2  1  0.01438155  0.87138605  0.99583339  1
  O  O3  1  0.46705696  0.17610183  0.99583342  1
  O  O4  1  0.01197011  0.32075051  0.77296019  1
  O  O5  1  0.01197017  0.32075035  0.21870676  1
  O  O6  1  0.51197037  0.67924983  0.71870682  1
  O  O7  1  0.51197032  0.67924968  0.27296011  1
  O  O8  1  0.96705708  0.82389864  0.49583342  1
  O  O9  1  0.51438143  0.12861411  0.49583340  1
  Li  Li10  1  0.11737915  0.66978415  0.74807139  1
  Li  Li11  1  0.11737848  0.66978391  0.24359517  1
  Li  Li12  1  0.61714723  0.83578697  0.99583320  1
  Li  Li13  1  0.11714698  0.16421427  0.49583320  1
  Li  Li14  1  0.61737842  0.33021559  0.74359512  1
  Li  Li15  1  0.61737910  0.33021535  0.24807145  1
