
#======================================================================
# CRYSTAL DATA
#----------------------------------------------------------------------
data_VESTA_phase_1

_chemical_name_common                  'Se   Ga   Li'
_cell_length_a                         6.654636
_cell_length_b                         6.952870
_cell_length_c                         8.386588
_cell_angle_alpha                      89.999992
_cell_angle_beta                       89.999992
_cell_angle_gamma                      89.999939
_cell_volume                           388.037543
_space_group_name_H-M_alt              'P 1'
_space_group_IT_number                 1

loop_
_space_group_symop_operation_xyz
   'x, y, z'

loop_
   _atom_site_label
   _atom_site_occupancy
   _atom_site_fract_x
   _atom_site_fract_y
   _atom_site_fract_z
   _atom_site_adp_type
   _atom_site_U_iso_or_equiv
   _atom_site_type_symbol
   Se1        1.0     0.993794     0.930134     0.868555    Uiso  ? Se
   Se2        1.0     0.978509     0.403364     0.121709    Uiso  ? Se
   Se3        1.0     0.978508     0.903365     0.353292    Uiso  ? Se
   Se4        1.0     0.493795     0.061533     0.106445    Uiso  ? Se
   Se5        1.0     0.993793     0.430134     0.606445    Uiso  ? Se
   Se6        1.0     0.478508     0.588302     0.853292    Uiso  ? Se
   Se7        1.0     0.478508     0.088302     0.621708    Uiso  ? Se
   Se8        1.0     0.493796     0.561533     0.368554    Uiso  ? Se
   Ga1        1.0     0.862002     0.069276     0.113519    Uiso  ? Ga
   Ga2        1.0     0.362001     0.922390     0.861481    Uiso  ? Ga
   Ga3        1.0     0.862001     0.569277     0.361482    Uiso  ? Ga
   Ga4        1.0     0.362004     0.422388     0.613518    Uiso  ? Ga
   Li1        1.0     0.865693     0.584063     0.865936    Uiso  ? Li
   Li2        1.0     0.865694     0.084063     0.609065    Uiso  ? Li
   Li3        1.0     0.365694     0.407605     0.109064    Uiso  ? Li
   Li4        1.0     0.365693     0.907605     0.365935    Uiso  ? Li
