# generated using pymatgen
data_TiZnN2
_symmetry_space_group_name_H-M   'P 1'
_cell_length_a   6.61296187
_cell_length_b   5.75137597
_cell_length_c   5.28015214
_cell_angle_alpha   90.00000179
_cell_angle_beta   89.99996031
_cell_angle_gamma   89.99999144
_symmetry_Int_Tables_number   1
_chemical_formula_structural   TiZnN2
_chemical_formula_sum   'Ti4 Zn4 N8'
_cell_volume   200.82335260
_cell_formula_units_Z   4
loop_
 _symmetry_equiv_pos_site_id
 _symmetry_equiv_pos_as_xyz
  1  'x, y, z'
loop_
 _atom_site_type_symbol
 _atom_site_label
 _atom_site_symmetry_multiplicity
 _atom_site_fract_x
 _atom_site_fract_y
 _atom_site_fract_z
 _atom_site_occupancy
  Ti  Ti0  1  -0.37417872  0.92116737  0.02066032  1
  Ti  Ti1  1  -0.12582080  0.42116750  0.02066030  1
  Ti  Ti2  1  -0.62582086  0.08994389  0.52066011  1
  Ti  Ti3  1  -0.87417891  0.58994344  0.52066018  1
  Zn  Zn4  1  -0.87610675  0.91848039  0.02180166  1
  Zn  Zn5  1  -0.12389386  0.09263004  0.52180141  1
  Zn  Zn6  1  -0.62389371  0.41848099  0.02180181  1
  Zn  Zn7  1  -0.37610739  0.59263052  0.52180207  1
  N  N8  1  -0.13416288  0.09441568  0.91425015  1
  N  N9  1  -0.86583740  0.91669463  0.41424963  1
  N  N10  1  -0.61544150  0.07710640  0.89190252  1
  N  N11  1  -0.88455880  0.57710727  0.89190195  1
  N  N12  1  -0.38455801  0.93400391  0.39190198  1
  N  N13  1  -0.11544105  0.43400467  0.39190237  1
  N  N14  1  -0.36583635  0.59441689  0.91424986  1
  N  N15  1  -0.63416302  0.41669528  0.41425031  1
