# generated using pymatgen
data_GaCuO2
_symmetry_space_group_name_H-M   'P 1'
_cell_length_a   5.32711410
_cell_length_b   5.49697862
_cell_length_c   6.64247085
_cell_angle_alpha   89.99999117
_cell_angle_beta   89.99981874
_cell_angle_gamma   89.99996485
_symmetry_Int_Tables_number   1
_chemical_formula_structural   GaCuO2
_chemical_formula_sum   'Ga4 Cu4 O8'
_cell_volume   194.51168872
_cell_formula_units_Z   4
loop_
 _symmetry_equiv_pos_site_id
 _symmetry_equiv_pos_as_xyz
  1  'x, y, z'
loop_
 _atom_site_type_symbol
 _atom_site_label
 _atom_site_symmetry_multiplicity
 _atom_site_fract_x
 _atom_site_fract_y
 _atom_site_fract_z
 _atom_site_occupancy
  O  O0  1  0.93072226  0.93547114  0.09453204  1
  O  O1  1  0.43072143  0.05620538  0.88875804  1
  O  O2  1  0.97976679  0.90051137  0.63759775  1
  O  O3  1  0.97977006  0.40051219  0.84569350  1
  O  O4  1  0.47976993  0.09116703  0.34569380  1
  O  O5  1  0.47976636  0.59116798  0.13759819  1
  O  O6  1  0.93072136  0.43547400  0.38875793  1
  O  O7  1  0.43072231  0.55620825  0.59453211  1
  Ga  Ga8  1  0.08033876  0.07505416  0.86766616  1
  Ga  Ga9  1  0.58033942  0.91662409  0.11562511  1
  Ga  Ga10  1  0.08033959  0.57505551  0.61562499  1
  Ga  Ga11  1  0.58033860  0.41662527  0.36766621  1
  Cu  Cu12  1  0.08378799  0.06170992  0.36156996  1
  Cu  Cu13  1  0.08378508  0.56170805  0.12172202  1
  Cu  Cu14  1  0.58378582  0.92997028  0.62172256  1
  Cu  Cu15  1  0.58378808  0.42996952  0.86157042  1
