
#======================================================================
# CRYSTAL DATA
#----------------------------------------------------------------------
data_VESTA_phase_1

_chemical_name_common                  'Al  N                                 '
_cell_length_a                         3.128420
_cell_length_b                         3.128449
_cell_length_c                         5.015258
_cell_angle_alpha                      90.000000
_cell_angle_beta                       90.000000
_cell_angle_gamma                      60.000320
_cell_volume                           42.508866
_space_group_name_H-M_alt              'P 1'
_space_group_IT_number                 1

loop_
_space_group_symop_operation_xyz
   'x, y, z'

loop_
   _atom_site_label
   _atom_site_occupancy
   _atom_site_fract_x
   _atom_site_fract_y
   _atom_site_fract_z
   _atom_site_adp_type
   _atom_site_U_iso_or_equiv
   _atom_site_type_symbol
   Al1        1.0     0.333334     0.283333     0.612848    Uiso  ? Al
   Al2        1.0     0.666666     0.616668     0.112848    Uiso  ? Al
   N1         1.0     0.666665     0.616670     0.731309    Uiso  ? N
   N2         1.0     0.333335     0.283331     0.231309    Uiso  ? N
